
#======================================================================
# CRYSTAL DATA
#----------------------------------------------------------------------
data_VESTA_phase_1

_chemical_name_common                  '#(C) '
_cell_length_a                         7.439550
_cell_length_b                         7.439550
_cell_length_c                         4.804210
_cell_angle_alpha                      90.000000
_cell_angle_beta                       90.000000
_cell_angle_gamma                      90.000000
_cell_volume                           265.898155
_space_group_name_H-M_alt              'P -4 21 m'
_space_group_IT_number                 113

loop_
_space_group_symop_operation_xyz
   'x, y, z'
   '-x, -y, z'
   'y, -x, -z'
   '-y, x, -z'
   '-x+1/2t, y+1/2t, -z'
   'x+1/2t, -y+1/2t, -z'
   '-y+1/2t, -x+1/2t, z'
   'y+1/2t, x+1/2t, z'

loop_
   _atom_site_label
   _atom_site_occupancy
   _atom_site_fract_x
   _atom_site_fract_y
   _atom_site_fract_z
   _atom_site_adp_type
   _atom_site_U_iso_or_equiv
   _atom_site_type_symbol
   Tb1        1.0     0.161040     0.661040     0.504660    Uiso  0.033240 Tb
   Ge1        1.0     0.500000     0.500000     1.000000    Uiso  0.033240 Ge
   Be1        1.0     0.137260     0.362740     0.047760    Uiso  0.033240 Be
   O1         1.0     0.000000     0.500000     0.187480    Uiso  0.033240 O
   O2         1.0     0.139720     0.360280     0.707640    Uiso  0.033240 O
   O3         1.0     0.420040     0.669660     0.770190    Uiso  0.033240 O
